OPT_V9/My_campus_w_initial_sub_3_active_25_03_11_44/powerflow_results_t20.txt
Pandapower Network Debug Info
==================================================

BUS:
       vm_pu  va_degree      p_mw    q_mvar
0   0.993263   0.114922  0.000910  0.001012
1   0.989008   0.168113  0.001517  0.001859
2   0.985218   0.214167  0.002147  0.002540
3   0.989696   0.208354  0.002123  0.004056
4   0.989558   0.130694  0.003467  0.004213
5   0.991921   0.139106  0.003577  0.005918
6   0.990304   0.136269  0.001171  0.000857
7   0.997580   0.035922  0.001580  0.002122
8   0.997862   0.024063  0.002272  0.002559
9   0.999883   0.000444  0.011966  0.008163
10  0.999869   0.000496  0.012700  0.008532
11  0.999859   0.000608  0.011030  0.012581
12  0.999766   0.001322  0.010493  0.006025
13  0.999747   0.001481  0.011473  0.011225
14  0.999735   0.001521  0.014461  0.012708
15  0.999928   0.000380  0.000000  0.000000
16  0.999928   0.000386  0.000000  0.000000
17  0.999771   0.001365  0.000000  0.000000
18  0.999771   0.001374  0.000000  0.000000
19  1.000000   0.000000 -0.042528 -0.043831
20  1.000000   0.000006  0.000000  0.000000
21  1.000000   0.000000 -0.048638 -0.050723
22  1.000000   0.000007  0.000000  0.000000
--------------------------------------------------

LINE:
    p_from_mw  q_from_mvar   p_to_mw  q_to_mvar         pl_mw       ql_mvar  i_from_ka   i_to_ka      i_ka  vm_from_pu  va_from_degree  vm_to_pu  va_to_degree  loading_percent
0    0.042518     0.039831 -0.042514  -0.039829  3.320060e-06  2.588706e-06   0.002242  0.002242  0.002242    1.000000        0.000006  0.999928      0.000380         0.974977
1    0.048628     0.046723 -0.048616  -0.046713  1.223281e-05  9.538126e-06   0.002596  0.002596  0.002596    1.000000        0.000007  0.999771      0.001365         1.128543
2    0.035698     0.029277 -0.035696  -0.029276  1.648497e-06  1.285360e-06   0.001777  0.001777  0.001777    0.999928        0.000380  0.999883      0.000444         0.772672
3    0.010493     0.006025 -0.010493  -0.006025  5.065626e-08  3.949752e-08   0.000466  0.000466  0.000466    0.999771        0.001365  0.999766      0.001322         0.202540
4    0.025935     0.023933 -0.025934  -0.023933  6.812963e-07  5.312180e-07   0.001359  0.001359  0.001359    0.999771        0.001365  0.999747      0.001481         0.590713
5    0.006806     0.009552 -0.006742  -0.009502  6.434862e-05  5.017368e-05   0.016930  0.016930  0.016930    0.999928        0.000386  0.993263      0.114922         7.360850
6    0.004804     0.006818 -0.004750  -0.006776  5.399525e-05  4.210098e-05   0.012041  0.012041  0.012041    0.999771        0.001374  0.991921      0.139106         5.235396
7    0.001585     0.002126 -0.001580  -0.002122  4.752699e-06  3.705758e-06   0.003828  0.003828  0.003828    0.999771        0.001374  0.997580      0.035922         1.664465
8    0.005789     0.006812 -0.005775  -0.006801  1.374558e-05  1.071765e-05   0.012906  0.012906  0.012906    0.999771        0.001374  0.997862      0.024063         5.611096
9   -0.023730    -0.021113  0.023730   0.021113  3.489822e-07  2.721072e-07   0.001223  0.001223  0.001223    0.999869        0.000496  0.999883      0.000444         0.531613
10  -0.011030    -0.012581  0.011030   0.012581  1.369471e-07  1.067799e-07   0.000644  0.000644  0.000644    0.999859        0.000608  0.999869      0.000496         0.280035
11  -0.014461    -0.012708  0.014461   0.012708  1.813479e-07  1.413999e-07   0.000741  0.000741  0.000741    0.999735        0.001521  0.999747      0.001481         0.322250
12  -0.003675    -0.004407  0.003695   0.004423  1.991604e-05  1.552886e-05   0.008374  0.008374  0.008374    0.989008        0.168113  0.993263      0.114922         3.641077
13  -0.002123    -0.004056  0.002137   0.004067  1.428629e-05  1.113925e-05   0.006677  0.006677  0.006677    0.989696        0.208354  0.993263      0.114922         2.902856
14  -0.002147    -0.002540  0.002158   0.002548  1.030989e-05  8.038792e-06   0.004873  0.004873  0.004873    0.985218        0.214167  0.989008      0.168113         2.118614
15   0.003504     0.004242 -0.003467  -0.004213  3.699133e-05  2.884275e-05   0.007958  0.007958  0.007958    0.997862        0.024063  0.989558      0.130694         3.460192
16  -0.001171    -0.000857  0.001172   0.000858  1.868149e-06  1.456627e-06   0.002114  0.002114  0.002114    0.990304        0.136269  0.991921      0.139106         0.919269
--------------------------------------------------

TRAFO:
    p_hv_mw  q_hv_mvar   p_lv_mw  q_lv_mvar    pl_mw   ql_mvar   i_hv_ka   i_lv_ka  vm_hv_pu  va_hv_degree  vm_lv_pu  va_lv_degree  loading_percent
0  0.006816   0.010552 -0.006806  -0.009552  0.00001  0.001000  0.000484  0.016930  0.999928      0.000380  0.999928      0.000386         0.125626
1  0.012188   0.016755 -0.012178  -0.015756  0.00001  0.000999  0.000798  0.028749  0.999771      0.001365  0.999771      0.001374         0.207237
2  0.042528   0.043831 -0.042518  -0.039831  0.00001  0.004000  0.000504  0.002242  1.000000      0.000000  1.000000      0.000006         0.152680
3  0.048638   0.050723 -0.048628  -0.046723  0.00001  0.004000  0.000580  0.002596  1.000000      0.000000  1.000000      0.000007         0.175686
--------------------------------------------------
